[General]

sim-time-limit = 10s

[Config wiresless01]
description = Two hosts communicating wireslessly
network = wirelessA

*.host*.ipv4.arp.typename = "GlobalArp"

*.hostA.numApps = 1
*.hostA.app[0].typename = "UdpBasicApp"
*.hostA.app[0].destAddresses = "hostB"
*.hostA.app[0].destPort = 5000
*.hostA.app[0].messageLength = 500B    
*.hostA.app[0].sendInterval = exponential(12ms)
*.hostA.app[0].packetName = "UDPData"

*.hostB.numApps = 1
*.hostB.app[0].typename = "UdpSink"
*.hostB.app[0].localPort = 5000

*.host*.wlan[0].typename = "AckingwireslessInterface"
*.host*.wlan[0].mac.useAck = false
*.host*.wlan[0].mac.fullDuplex = false
*.host*.wlan[0].radio.transmitter.communicationRange = 500m
*.host*.wlan[0].radio.receiver.ignoreInterference = true
*.host*.wlan[0].mac.headerLength = 23B

*.host*.**.bitrate = 10Mbps    
*.*.radioMedium.maxTransmissionDuration = 5s

[Config wiresless02]
description = Setting up some animations
extends = wiresless01

*.hostA.wlan[0].radio.displayCommunicationRange = true

*.visualizer.sceneVisualizer.descriptionFigure = "title"

*.visualizer.mediumVisualizer.displaySignals = true

*.visualizer.physicalLinkVisualizer.displayLinks = true
*.visualizer.physicalLinkVisualizer.packetFilter = "UDPData*"

[Config wiresless03]
description = wireslessB as standalone network
network = wirelessB

*.hostA.numApps = 1
*.hostA.app[0].typename = "UdpBasicApp"
*.hostA.app[0].destAddresses = "hostB"
*.hostA.app[0].destPort = 5000
*.hostA.app[0].messageLength = 500B    
*.hostA.app[0].sendInterval = exponential(12ms)
*.hostA.app[0].packetName = "UDPData"

*.hostB.numApps = 1
*.hostB.app[0].typename = "UdpSink"
*.hostB.app[0].localPort = 5000

*.hostR1.numApps = 0

*.host*.wlan[0].radio.transmitter.communicationRange = 250m
*.hostR1.wlan[0].radio.displayCommunicationRange = true

[Config wiresless04]
description = Setting up static routing
extends = wiresless03                         #NON-QOS PART ETTUK

*.host*.ipv4.routingTable.typename = "AodvRouting"  # Enable AODV routing

*.host*.forwarding = true
*.radioMedium.typename = "GenericRadioMedium"

*.configurator.config = xml("<config><interface hosts='**' address='10.0.0.x' netmask='255.255.255.0'/><autoroute metric='errorRate'/></config>")
*.configurator.optimizeRoutes = false
*.host*.ipv4.routingTable.netmaskRoutes = ""

*.visualizer.*.physicalLinkVisualizer.displayLinks = true
*.visualizer.dataLinkVisualizer.displayLinks = true
*.visualizer.networkRouteVisualizer.displayRoutes = true
*.visualizer.networkRouteVisualizer.lineShift = 0
*.visualizer.networkRouteVisualizer.packetFilter = "UDPData*"
*.visualizer.routingTableVisualizer.displayRoutingTables = true
*.visualizer.routingTableVisualizer.labelFormat = ""
*.visualizer.routingTableVisualizer.lineShiftMode = "none"
*.visualizer.routingTableVisualizer.destinationFilter = "*"
*.visualizer.*.mediumVisualizer.displayCommunicationRanges = true
*.scenarioManager.script = xmldoc("scenario.xml")
*.visualizer.mobilityVisualizer.displayVelocities = true
*.visualizer.mobilityVisualizer.displayMovementTrails = true
*.visualizer.mediumVisualizer.displaySignals = true


